{
  "@context": "../../../../spec/context/v0.5.jsonld",
  "id": "https://example.org/wind-turbine/uofa-cou1",
  "type": "UnitOfAssurance",
  "conformsToProfile": "https://uofa.net/vocab#ProfileMinimal",
  "name": "Wind turbine blade fatigue — normal operation COU",
  "description": "Credibility assessment for an OpenFAST aeroelastic simulation predicting fatigue damage equivalent loads (DELs) on the IEA 15-MW reference wind turbine blade root under DLC 1.1 normal power production. NASA-STD-7009B credibility factors applied.",
  "bindsRequirement": "https://example.org/wind-turbine/req/blade-root-fatigue-life",
  "hasContextOfUse": {
    "id": "https://example.org/wind-turbine/cou/cou1-normal-operation",
    "type": "ContextOfUse",
    "name": "COU1: Normal power production fatigue assessment (DLC 1.1)",
    "intendedUse": "Use OpenFAST aeroelastic simulation to predict 20-year fatigue damage equivalent loads at the blade root under IEC 61400-1 DLC 1.1 normal power production conditions. Results inform blade root laminate sizing and certification margin assessment."
  },
  "hasValidationResult": [
    "https://example.org/wind-turbine/validation/tower-base-load-comparison",
    "https://example.org/wind-turbine/validation/blade-strain-field-test"
  ],
  "hasDecisionRecord": {
    "id": "https://example.org/wind-turbine/decision/cou1",
    "type": "DecisionRecord",
    "actor": "https://example.org/wind-turbine/org/structural-analysis-team",
    "role": "Aeroelastic analysis team",
    "outcome": "Accepted",
    "rationale": "OpenFAST DEL predictions at blade root show less than 8% deviation from field-measured strain-gauge data across 6 wind speed bins. Simulation conservatively overpredicts loads. Adequate for DLC 1.1 fatigue sizing per IEC 61400-1.",
    "decidedAt": "2026-02-15T00:00:00Z"
  },
  "generatedAtTime": "2026-02-15T00:00:00Z",
  "hash": "sha256:0f89effedeadf8cc520e0a2f3b21af2d1c49ffe2b7ecddababecdbacbb6aef54",
  "signature": "ed25519:e5add47086c17ce5745e7de20783e68b65a6be663c376b0c3f0fdc04db2e68c6fe57558837128b5175d4b31f230aacf53738db40ac4e87546c0fa0c7bef0ce01",
  "signatureAlg": "ed25519",
  "canonicalizationAlg": "RDFC-1.0"
}